  38  

O  0.4346708419 -0.9710625227 -0.5252195446
N  -0.7161576345 0.6230629410 0.6184480693
C  -2.6982850516 0.6471324262 -1.2467627619
C  -2.7929356602 1.4874388185 -0.1101426234
C  -1.7751182268 1.4482796431 0.7934900200
C  -0.5685544687 -0.2331418685 -0.4587591212
C  -1.6290960989 -0.1816770463 -1.4264168000
H  -3.4873264803 0.6691414712 -1.9879675949
H  -3.6338933989 2.1458639286 0.0409643105
H  -1.7514180371 2.0611142954 1.6833343443
H  -1.5308429905 -0.8151760313 -2.2950651385
H  0.0556941397 0.6340511358 1.3164610444
N  1.4393792439 0.8079621229 2.5083872680
C  2.6278150928 0.2247453272 2.2609600341
C  3.7501459937 0.4875347313 3.0814472022
C  3.6152188966 1.3477638092 4.1459123506
C  2.3776224672 1.9467839813 4.4042678246
C  1.3355088194 1.6375834145 3.5528622184
H  4.6966847483 0.0107072063 2.8645687432
H  4.4666416443 1.5573447862 4.7805204087
H  2.2337643520 2.6261373574 5.2309337289
H  0.3555481893 2.0766499306 3.7061272638
N  2.6991353332 -0.6255312254 1.2108223843
H  3.5867519698 -1.0040483330 0.9396509544
H  1.9010283558 -0.7625701794 0.5888872350
H  0.6177482546 -1.9988314428 -2.1255988249
N  0.6382231036 -2.6231452317 -2.9295248235
H  0.8307908035 -3.5892721201 -2.7344168988
C  1.0471706191 -2.1183965052 -4.1336880368
N  1.0396724235 -0.7838212793 -4.2637337137
C  1.4081863169 -0.2643814355 -5.4356331060
H  1.3909234154 0.8191808457 -5.4934189690
H  2.0893270607 -0.5343771558 -7.4585737812
C  1.7975445432 -1.0140570982 -6.5354952656
C  1.7964596104 -2.4031127853 -6.3982764442
H  2.0892168252 -3.0375023971 -7.2254523478
H  1.4089758244 -4.0418988926 -5.0654029705
C  1.4205274142 -2.9675425442 -5.1976048447
