 45
 
N  -0.5351467566 1.6892532121 1.1619896961
C  -0.8216207750 0.7701095970 0.2045668840
H  -1.0918843459 1.0473442403 -0.7924292933
N  -0.7265455354 -0.4447905548 0.6167768061
C  -0.3535948828 -0.3301188535 1.9418560804
C  -0.1031775154 -1.2577002456 2.9506256526
N  -0.1821157828 -2.5869737026 2.7512134206
H  -0.1602656462 -3.1696866719 3.5527346402
H  -0.6676857413 -2.9163416337 1.9535880904
N  0.2484063743 -0.8133852826 4.1484123138
C  0.3448551136 0.4892332017 4.3384625323
H  0.6365176330 0.7889022976 5.3274604306
N  0.1263751728 1.4563024337 3.4793030675
C  -0.2286165484 0.9942751077 2.2833558600
H  -0.5197540381 2.6863400449 1.0724100490
N  -0.4989638159 -1.9980431838 -1.9677308852
C  0.0656029561 -3.2341397863 -2.1420531963
H  0.3826218970 -3.7111776726 -1.2356692003
C  0.2206417097 -3.8104478658 -3.3275080193
C  0.8383239947 -5.1586363562 -3.5454938186
H  0.1424979182 -5.8226507505 -4.0420103575
H  1.7121189125 -5.0807516741 -4.1799308577
H  1.1326049602 -5.6041109768 -2.6039683401
C  -0.2437031935 -3.0657731399 -4.5024230732
O  -0.1749052055 -3.4590317417 -5.6250820025
N  -0.7880179112 -1.8237650768 -4.2289438607
H  -1.1009142977 -1.2911163137 -5.0080134656
C  -0.9305250938 -1.2357745203 -3.0041724281
O  -1.3957115396 -0.1419645872 -2.8672261733
H  -0.5852554135 -1.6007070636 -1.0533685306
O  -0.1995258952 4.5325252248 1.4261367575
C  0.3165808633 5.0752958344 2.3685442630
H  0.4165472354 6.8908667841 1.5151909540
N  0.6349727192 6.3975909855 2.3505484539
C  1.2409536987 7.1239770701 3.3638498851
H  0.4259287468 3.4535123933 3.5655989063
N  0.6260651336 4.4351674197 3.5167233580
O  1.4724966294 8.2817447848 3.2144223024
C  1.2276557007 5.0685463488 4.5753920121
C  1.5505682025 6.3553876834 4.5730774905
H  1.4204644232 4.4357262703 5.4186382309
C  2.2087198865 7.0711558533 5.7136719913
H  1.5946272585 7.8954983460 6.0525074108
H  2.3769303360 6.3984832819 6.5444747623
H  3.1592367316 7.4873204591 5.4056122226
