  22

C  1.3405667385 0.0629009491 -0.7055448708
C  0.6796192757 -1.1489151526 -0.7835784286
C  -0.6941267891 -1.1978246484 -0.6354747238
C  -1.4068630038 -0.0350522653 -0.4091793890
C  -0.7458853536 1.1767921098 -0.3312613558
C  0.6278342613 1.2258064842 -0.4796867548
H  2.4067273713 0.1009834146 -0.8214367434
H  1.2325664065 -2.0511893950 -0.9617498775
H  -1.2072325069 -2.1383071580 -0.6970948351
H  -2.4729738380 -0.0731989556 -0.2928702529
H  -1.2989139770 2.0791590120 -0.1537534323
H  1.1409448243 2.1662804599 -0.4180835069
C  0.1333542385 -0.0444765261 3.1956286828
H  0.6068182810 0.9245607724 3.2874428543
H  -0.9395843705 0.0715554067 3.2779106578
H  0.3732969815 -0.4699705928 2.2317950149
H  0.4877272312 -0.6954749190 3.9848244150
H  0.8841230547 -0.0474809771 -4.3865445792
C  -0.1910375626 0.0406066715 -4.2987927730
H  -0.4351143691 0.5108217254 -3.3570272623
H  -0.5727431144 0.6357729571 -5.1187031383
H  -0.6351148247 -0.9458923624 -4.3313546201
