  28

C  -0.2715291576 0.7177475318 -0.8121574689
C  -0.9701742134 0.5710120053 0.3721797572
C  -0.4834739881 -0.2624697548 1.3630657530
C  0.6998469030 -0.9494668424 1.1685222473
C  1.3978927713 -0.8037378999 -0.0158761819
C  0.9136389841 0.0305523945 -1.0056668865
H  -0.6501096678 1.3624128987 -1.5820806410
H  -1.8923903563 1.0990701460 0.5204749209
H  -1.0298687735 -0.3827474008 2.2785528493
H  1.0690024611 -1.6069771211 1.9311532267
H  2.3093933195 -1.3470289632 -0.1715015023
H  1.4537659835 0.1413719628 -1.9263932610
N  -1.4995866035 -3.0667843610 -0.8420245976
H  -1.3622641556 -3.4114240822 -1.7691272296
H  -0.8023551551 -3.4859348282 -0.2633418691
H  -1.3270612164 -2.0832340506 -0.8520227815
H  1.3320981178 -5.9957639892 -2.1222068052
H  2.9320827880 -4.3935393563 -1.1711718911
C  2.1607239321 -4.8122440518 -0.5535417704
C  1.2596228145 -5.7144989157 -1.0890658087
H  -0.4409608308 -6.9448178182 -0.7120310744
C  0.2629123785 -6.2507028608 -0.2950316803
C  2.0655907330 -4.4485652732 0.7764017284
H  2.7637877355 -3.7476239536 1.1921693376
C  1.0676747493 -4.9830535379 1.5705484480
C  0.1660183226 -5.8841475467 1.0349194965
H  -0.6133178483 -6.2929883472 1.6484524089
H  0.9903345580 -4.6961833777 2.6018329969
