  18

C  0.6862688507 -0.5541612529 -1.2015517456
C  0.3992405449 0.7992347204 -1.2077985326
C  0.2751970124 1.4861043973 -0.0128428891
C  0.4311323714 0.8175996469 1.1889413737
C  0.7149223251 -0.5368403611 1.1949836037
C  0.8460072610 -1.2216724715 -0.0005713709
H  0.7847478173 -1.0859046972 -2.1280799480
H  0.2704584922 1.3160635500 -2.1391874098
H  0.0579804143 2.5366685789 -0.0176691505
H  0.3319422732 1.3490682129 2.1153673880
H  0.8333310775 -1.0555778734 2.1265484819
H  1.0738212795 -2.2701289635 0.0043257750
O  -2.7871625742 -0.5707813369 0.0332686679
H  -2.3292399290 -1.3878626333 -0.0527514651
H  -2.1141669874 0.0867485557 0.0716913993
H  3.5403335754 1.0718674675 -0.8842778175
H  3.1794440308 0.4867500674 0.4434583778
O  3.9045526789 0.8256332658 -0.0527150731
