  20

C  -0.8230828772 0.3538297148 -1.1296997613
C  -1.4240480690 0.2716828137 0.1134087595
C  -0.6557504415 0.3596550793 1.2602603712
C  0.7131036686 0.5318416542 1.1631871070
C  1.3137802928 0.6152052647 -0.0802495914
C  0.5459185894 0.5251270694 -1.2266088658
H  -1.4188205794 0.2824278359 -2.0192251042
H  -2.4866376882 0.1442791242 0.1884668479
H  -1.1224837449 0.2994673182 2.2243082445
H  1.3089946258 0.6012014687 2.0529276641
H  2.3759824190 0.7475072213 -0.1555251657
H  1.0122980591 0.5836488959 -2.1908909522
N  0.6430946214 -3.0746341888 -0.2243786208
H  1.4912284429 -2.8426614173 0.2489680146
H  0.1489381918 -3.7362187736 0.3372928303
H  0.0938397209 -2.2424094441 -0.2790982580
H  -1.1294492958 3.8645833294 -0.8982125836
N  -0.8225780596 3.9623697898 0.0470511704
H  -0.0829919836 4.6333793264 0.0618570111
H  -0.4486826804 3.0819738944 0.3338876311
