  36

C  0.0014414140 -0.0013980663 1.2100974771
C  0.0041692296 -1.1976812353 1.9037908797
C  0.0017053915 -1.1974448967 3.2869338541
C  -0.0035609831 0.0006126850 3.9780906793
C  -0.0063775123 1.1976841973 3.2851294600
C  -0.0038695988 1.1958624016 1.9019884992
H  0.0033900286 -0.0022193654 0.1397655288
H  0.0083155811 -2.1265862458 1.3660211731
H  0.0039761103 -2.1265549663 3.8244613592
H  -0.0052821725 0.0014061491 5.0513761213
H  -0.0104379124 2.1275807479 3.8212029416
H  -0.0059401284 2.1238921781 1.3626376218
C  -1.3840315807 0.0036762217 -2.4745695861
C  -0.6878346115 1.1985199734 -2.4752548136
C  0.6952353331 1.1934351108 -2.4760417136
C  1.3824920574 -0.0065795059 -2.4762768572
C  0.6863369105 -1.2014595049 -2.4756656611
C  -0.6967292557 -1.1963026997 -2.4747584791
H  -2.4567595336 0.0076650882 -2.4739299109
H  -1.2213258933 2.1295223355 -2.4751476061
H  1.2356356013 2.1204256254 -2.4767688138
H  2.4552345029 -0.0105760780 -2.4768081286
H  1.2198159066 -2.1324618324 -2.4756181791
H  -1.2371427229 -2.1233014165 -2.4742595582
H  -0.0511068555 -0.0109019786 -10.0025250621
C  -0.0393088446 -0.0085115776 -8.9292904380
H  -0.0290699708 -2.1352213637 -8.7695026570
C  -0.0269911160 -1.2045679562 -8.2346967085
H  -0.0460549162 2.1188501254 -8.7787017759
C  -0.0366008039 1.1905610927 -8.2398491467
C  -0.0216933527 1.1927918345 -6.8567778271
H  -0.0196183807 2.1224903683 -6.3203317084
C  -0.0092167169 -0.0024435929 -6.1614140298
H  0.0023708197 -0.0000727014 -5.0911498316
H  -0.0020823898 -2.1279380930 -6.3110326563
C  -0.0117848665 -1.2006888558 -6.8516417678 
