  36

C  0.0047682267 0.5881876309 1.2235954190
C  0.0682440796 -0.6526455927 1.8320754526
C  0.0853648832 -0.7490747387 3.2113960976
C  0.0390809984 0.3948594090 3.9880029800
C  -0.0242142309 1.6350253447 3.3800594421
C  -0.0413516624 1.7316076861 1.9995827429
H  -0.0084330098 0.6592709031 0.1547517415
H  0.1040696242 -1.5388139353 1.2285000114
H  0.1346799643 -1.7105681985 3.6848177215
H  0.0523886320 0.3166967927 5.0562058789
H  -0.0601083908 2.5240246564 3.9807832179
H  -0.0905322052 2.6954917311 1.5294931484
C  -1.3711325757 -0.3680892081 -2.3484675008
C  -0.7286779148 0.7851437654 -2.7600211882
C  0.6533067095 0.8405075826 -2.7709770315
C  1.3926777339 -0.2573158022 -2.3706580308
C  0.7498953752 -1.4109748333 -1.9611974857
C  -0.6314978404 -1.4663520493 -1.9499415977
H  -2.4432415689 -0.4091793087 -2.3338533012
H  -1.3025941871 1.6381723019 -3.0675061587
H  1.1518823614 1.7365279421 -3.0871080610
H  2.4647335084 -0.2124547806 -2.3733819584
H  1.3239819982 -2.2611097058 -1.6461032759
H  -1.1305123644 -2.3595022078 -1.6259315601
H  -0.1126691866 -3.1311185197 6.3540826852
C  -0.0029507246 -2.1724827108 6.8241366674
H  2.1273667746 -2.1971833576 6.7309843847
C  1.2581970642 -1.6473573919 7.0368996962
H  2.3778209956 -0.0006268491 7.7993247892
C  1.3992102514 -0.4100908150 7.6379183441
C  0.2786515799 0.3015298521 8.0258020778
H  0.3879380917 1.2625299999 8.4906573420
H  -1.8525442486 0.3313657021 8.1070244938
C  -0.9828682395 -0.2230715811 7.8107492298
C  -1.1235887314 -1.4600576077 7.2091900271
H  -2.1023606703 -1.8645470767 7.0366482609
