  16

C  -0.0379317991 -0.6294816793 -2.1932653657
C  -0.0139537706 0.6856329645 -2.2042240933
H  0.8609681988 -1.2087380241 -2.0890530020
H  -0.9573200693 -1.1774379241 -2.2880447862
H  -0.9126128770 1.2650917328 -2.3091251323
H  0.9056519772 1.2334616292 -2.1100715405
C  0.1292581301 -0.1564871220 2.8895719671
C  0.0388350014 -0.0796458509 1.7139474474
H  -0.0410289302 -0.0122235075 0.6636056327
H  0.2092057413 -0.2255186959 3.9398280771
H  -0.9117151404 -1.4457095887 6.6345956627
C  0.0842948289 -1.0599225519 6.7512292343
H  0.8787663470 -1.7815587267 6.8013095448
C  0.3191735748 0.2319601930 6.8293048518
H  -0.4755772197 0.9534161942 6.7796142214
H  1.3149745318 0.6179788823 6.9463828856
