  40

C  0.5080452991 0.6707521524 -1.5927653922
C  -0.7722313461 0.1281950616 -1.6290828165
C  -1.3008185343 -0.3225220750 -2.8346169242
C  -0.5514725681 -0.2295250150 -4.0046411900
C  0.7269097683 0.3198805118 -3.9689883789
C  1.2555371863 0.7695139972 -2.7621581835
H  0.9237192980 1.0018146268 -0.6518106316
H  -1.3461707771 0.0477307551 -0.7164379671
H  -2.2958538889 -0.7476794310 -2.8633737162
H  -0.9630197697 -0.5819344628 -4.9414440937
H  1.3088904854 0.3952168264 -4.8784136079
H  2.2509939651 1.1932543998 -2.7318222393
H  -2.9448449181 1.2010068695 2.5433930277
C  -2.0722093308 0.6095741930 2.3004512507
C  -0.8162935682 1.1887348790 2.3477113485
H  -0.7004428858 2.2285699779 2.6248487707
C  0.3045440189 0.4116566565 2.0259645862
C  1.7120994205 0.6681455111 1.9414594686
H  2.2175786125 1.5944837665 2.1552351720
C  2.3048804940 -0.4940890364 1.5305216065
N  1.3496766340 -1.4701463865 1.3676826189
C  0.1133330444 -0.9463219484 1.6574876423
C  -1.1494650124 -1.5351446057 1.6184620636
H  -1.2709109088 -2.5699890974 1.3322261277
C  -2.2365621955 -0.7413494274 1.9425630552
H  -3.2313998052 -1.1659056027 1.9192480852
H  1.5199091532 -2.3902132063 0.9995311513
H  3.3414697744 -0.7103361894 1.3364278622
C  1.1762982435 -2.8937743338 -1.8226340828
H  1.0548936076 -2.1028146555 -2.5480583979
H  3.3207530520 -2.8290586650 -1.8687965993
C  2.4490715116 -3.2994251490 -1.4333591789
C  0.0557361770 -3.4932713926 -1.2580018945
H  -0.9308546607 -3.1626047382 -1.5513140607
C  0.2054699588 -4.4963925085 -0.3048764018
H  -0.6673399354 -4.9606419927 0.1354487222
C  1.4790278244 -4.8995224657 0.0890993680
H  1.5957458202 -5.6768456509 0.8327330772
C  2.6024416023 -4.3003444604 -0.4764791274
H  3.5927107778 -4.6136030199 -0.1726934988
