  15 

C  -0.0787296929 0.1696636462 1.8982374597
H  -0.9166341762 0.7030828172 1.4688946239
H  0.8359739437 0.5000697233 1.4243006455
H  -0.2041623265 -0.8918570533 1.7322090592
H  -0.0292674584 0.3673779468 2.9611346424
C  -0.0021905402 0.0090721572 -1.7547221282
H  -0.0525348111 -0.1899304998 -2.8173256098
H  -0.6344431434 -0.6901344669 -1.2245040331
H  1.0178244510 -0.1039470803 -1.4133315832
H  -0.3386502373 1.0187494533 -1.5587786288
H  2.0220977769 -2.8262753092 -1.1316557955
C  1.6975316864 -2.9614460834 -0.1083943531
H  0.6191034285 -3.0446128144 -0.0831536669
H  2.1400772608 -3.8623187114 0.2962020245
H  2.0046382888 -2.1092071905 0.4828956134
